IEEE data/057_bus/bpa/057bpa.DAT
(POWERFLOW,CASEID=EMS,PROJECT=TEST)
/P_INPUT_LIST,FULL\
/P_OUTPUT_LIST,FULL\
/P_ANALYSIS_RPT,LEVEL=4\
/NETWORK_DATA\
.234567890*234567890*234567890*234567890*234567890*234567890*234567890*234567890
BS    bus-1    100 155.  17.              478.699990-99991040                                                                                                                                                                                                                                              
BQ    bus-2    100 13.   88.                   50.  -17. 1010                                                                                                                                                                                                                                              
BQ    bus-3    100 141.  21.              40.  60.  -10. 0985                                                                                                                                                                                                                                              
B     bus-4    100 1                                                                                                                                                                                                                                                                                       
B     bus-5    100 113.  4.                                                                                                                                                                                                                                                                                
BQ    bus-6    100 175.  2.                    25.  -8.  0980                                                                                                                                                                                                                                              
B     bus-7    100 1                                                                                                                                                                                                                                                                                       
BQ    bus-8    100 1150. 22.              450. 200. -140.1005                                                                                                                                                                                                                                              
BQ    bus-9    100 1121. 26.                   9.   -3.  0980                                                                                                                                                                                                                                              
B     bus-10   100 15.   2.                                                                                                                                                                                                                                                                                
B     bus-11   100 1                                                                                                                                                                                                                                                                                       
BQ    bus-12   100 1377. 24.              310. 155. -150.1015                                                                                                                                                                                                                                              
B     bus-13   100 118.  2.3                                                                                                                                                                                                                                                                               
B     bus-14   100 110.5 5.3                                                                                                                                                                                                                                                                               
B     bus-15   100 122.  5.                                                                                                                                                                                                                                                                                
B     bus-16   100 143.  3.                                                                                                                                                                                                                                                                                
B     bus-17   100 142.  8.                                                                                                                                                                                                                                                                                
B     bus-18   100 127.2 9.8      10.                                                                                                                                                                                                                                                                      
B     bus-19   100 13.3  .6                                                                                                                                                                                                                                                                                
B     bus-20   100 12.3  1.                                                                                                                                                                                                                                                                                
B     bus-21   100 1                                                                                                                                                                                                                                                                                       
B     bus-22   100 1                                                                                                                                                                                                                                                                                       
B     bus-23   100 16.3  2.1                                                                                                                                                                                                                                                                               
B     bus-24   100 1                                                                                                                                                                                                                                                                                       
B     bus-25   100 16.3  3.2      5.9                                                                                                                                                                                                                                                                      
B     bus-26   100 1                                                                                                                                                                                                                                                                                       
B     bus-27   100 19.3  .5                                                                                                                                                                                                                                                                                
B     bus-28   100 14.6  2.3                                                                                                                                                                                                                                                                               
B     bus-29   100 117.  2.6                                                                                                                                                                                                                                                                               
B     bus-30   100 13.6  1.8                                                                                                                                                                                                                                                                               
B     bus-31   100 15.8  2.9                                                                                                                                                                                                                                                                               
B     bus-32   100 11.6  .8                                                                                                                                                                                                                                                                                
B     bus-33   100 13.8  1.9                                                                                                                                                                                                                                                                               
B     bus-34   100 1                                                                                                                                                                                                                                                                                       
B     bus-35   100 16.   3.                                                                                                                                                                                                                                                                                
B     bus-36   100 1                                                                                                                                                                                                                                                                                       
B     bus-37   100 1                                                                                                                                                                                                                                                                                       
B     bus-38   100 114.  7.                                                                                                                                                                                                                                                                                
B     bus-39   100 1                                                                                                                                                                                                                                                                                       
B     bus-40   100 1                                                                                                                                                                                                                                                                                       
B     bus-41   100 16.3  3.                                                                                                                                                                                                                                                                                
B     bus-42   100 17.1  4.4                                                                                                                                                                                                                                                                               
B     bus-43   100 12.   1.                                                                                                                                                                                                                                                                                
B     bus-44   100 112.  1.8                                                                                                                                                                                                                                                                               
B     bus-45   100 1                                                                                                                                                                                                                                                                                       
B     bus-46   100 1                                                                                                                                                                                                                                                                                       
B     bus-47   100 129.7 11.6                                                                                                                                                                                                                                                                              
B     bus-48   100 1                                                                                                                                                                                                                                                                                       
B     bus-49   100 118.  8.5                                                                                                                                                                                                                                                                               
B     bus-50   100 121.  10.5                                                                                                                                                                                                                                                                              
B     bus-51   100 118.  5.3                                                                                                                                                                                                                                                                               
B     bus-52   100 14.9  2.2                                                                                                                                                                                                                                                                               
B     bus-53   100 120.  10.      6.3                                                                                                                                                                                                                                                                      
B     bus-54   100 14.1  1.4                                                                                                                                                                                                                                                                               
B     bus-55   100 16.8  3.4                                                                                                                                                                                                                                                                               
B     bus-56   100 17.6  2.2                                                                                                                                                                                                                                                                               
B     bus-57   100 16.7  2.                                                                                                                                                                                                                                                                                
-999
.234567890*234567890*234567890*234567890*234567890*234567890*234567890*234567890
.234567890*234567890*234567890*234567890*234567890*234567890*234567890*234567890
L     bus-1    100 bus-2    100       .0083 .028        .0645                                                                                                                                                                                                                                              
L     bus-2    100 bus-3    100       .0298 .085        .0409                                                                                                                                                                                                                                              
L     bus-3    100 bus-4    100       .0112 .0366       .019                                                                                                                                                                                                                                               
L     bus-4    100 bus-5    100       .0625 .132        .0129                                                                                                                                                                                                                                              
L     bus-4    100 bus-6    100       .043  .148        .0174                                                                                                                                                                                                                                              
L     bus-6    100 bus-7    100       .02   .102        .0138                                                                                                                                                                                                                                              
L     bus-6    100 bus-8    100       .0339 .173        .0235                                                                                                                                                                                                                                              
L     bus-8    100 bus-9    100       .0099 .0505       .0274                                                                                                                                                                                                                                              
L     bus-9    100 bus-10   100       .0369 .1679       .022                                                                                                                                                                                                                                               
L     bus-9    100 bus-11   100       .0258 .0848       .0109                                                                                                                                                                                                                                              
L     bus-9    100 bus-12   100       .0648 .295        .0386                                                                                                                                                                                                                                              
L     bus-9    100 bus-13   100       .0481 .158        .0203                                                                                                                                                                                                                                              
L     bus-13   100 bus-14   100       .0132 .0434       .0055                                                                                                                                                                                                                                              
L     bus-13   100 bus-15   100       .0269 .0869       .0115                                                                                                                                                                                                                                              
L     bus-1    100 bus-15   100       .0178 .091        .0494                                                                                                                                                                                                                                              
L     bus-1    100 bus-16   100       .0454 .206        .0273                                                                                                                                                                                                                                              
L     bus-1    100 bus-17   100       .0238 .108        .0143                                                                                                                                                                                                                                              
L     bus-3    100 bus-15   100       .0162 .053        .0272                                                                                                                                                                                                                                              
L     bus-5    100 bus-6    100       .0302 .0641       .0062                                                                                                                                                                                                                                              
L     bus-7    100 bus-8    100       .0139 .0712       .0097                                                                                                                                                                                                                                              
L     bus-10   100 bus-12   100       .0277 .1262       .0164                                                                                                                                                                                                                                              
L     bus-11   100 bus-13   100       .0223 .0732       .0094                                                                                                                                                                                                                                              
L     bus-12   100 bus-13   100       .0178 .058        .0302                                                                                                                                                                                                                                              
L     bus-12   100 bus-16   100       .018  .0813       .0108                                                                                                                                                                                                                                              
L     bus-12   100 bus-17   100       .0397 .179        .0238                                                                                                                                                                                                                                              
L     bus-14   100 bus-15   100       .0171 .0547       .0074                                                                                                                                                                                                                                              
L     bus-18   100 bus-19   100       .461  .685                                                                                                                                                                                                                                                           
L     bus-19   100 bus-20   100       .283  .434                                                                                                                                                                                                                                                           
L     bus-21   100 bus-22   100       .0736 .117                                                                                                                                                                                                                                                           
L     bus-22   100 bus-23   100       .0099 .0152                                                                                                                                                                                                                                                          
L     bus-23   100 bus-24   100       .166  .256        .0042                                                                                                                                                                                                                                              
L     bus-26   100 bus-27   100       .165  .254                                                                                                                                                                                                                                                           
L     bus-27   100 bus-28   100       .0618 .0954                                                                                                                                                                                                                                                          
L     bus-28   100 bus-29   100       .0418 .0587                                                                                                                                                                                                                                                          
L     bus-25   100 bus-30   100       .135  .202                                                                                                                                                                                                                                                           
L     bus-30   100 bus-31   100       .326  .497                                                                                                                                                                                                                                                           
L     bus-31   100 bus-32   100       .507  .755                                                                                                                                                                                                                                                           
L     bus-32   100 bus-33   100       .0392 .036                                                                                                                                                                                                                                                           
L     bus-34   100 bus-35   100       .052  .078        .0016                                                                                                                                                                                                                                              
L     bus-35   100 bus-36   100       .043  .0537       .0008                                                                                                                                                                                                                                              
L     bus-36   100 bus-37   100       .029  .0366                                                                                                                                                                                                                                                          
L     bus-37   100 bus-38   100       .0651 .1009       .001                                                                                                                                                                                                                                               
L     bus-37   100 bus-39   100       .0239 .0379                                                                                                                                                                                                                                                          
L     bus-36   100 bus-40   100       .03   .0466                                                                                                                                                                                                                                                          
L     bus-22   100 bus-38   100       .0192 .0295                                                                                                                                                                                                                                                          
L     bus-41   100 bus-42   100       .207  .352                                                                                                                                                                                                                                                           
L     bus-41   100 bus-43   100             .412                                                                                                                                                                                                                                                           
L     bus-38   100 bus-44   100       .0289 .0585       .001                                                                                                                                                                                                                                               
L     bus-46   100 bus-47   100       .023  .068        .0016                                                                                                                                                                                                                                              
L     bus-47   100 bus-48   100       .0182 .0233                                                                                                                                                                                                                                                          
L     bus-48   100 bus-49   100       .0834 .129        .0024                                                                                                                                                                                                                                              
L     bus-49   100 bus-50   100       .0801 .128                                                                                                                                                                                                                                                           
L     bus-50   100 bus-51   100       .1386 .22                                                                                                                                                                                                                                                            
L     bus-29   100 bus-52   100       .1442 .187                                                                                                                                                                                                                                                           
L     bus-52   100 bus-53   100       .0762 .0984                                                                                                                                                                                                                                                          
L     bus-53   100 bus-54   100       .1878 .232                                                                                                                                                                                                                                                           
L     bus-54   100 bus-55   100       .1732 .2265                                                                                                                                                                                                                                                          
L     bus-44   100 bus-45   100       .0624 .1242       .002                                                                                                                                                                                                                                               
L     bus-56   100 bus-41   100       .553  .549                                                                                                                                                                                                                                                           
L     bus-56   100 bus-42   100       .2125 .354                                                                                                                                                                                                                                                           
L     bus-57   100 bus-56   100       .174  .26                                                                                                                                                                                                                                                            
L     bus-38   100 bus-49   100       .115  .177        .0015                                                                                                                                                                                                                                              
L     bus-38   100 bus-48   100       .0312 .0482                                                                                                                                                                                                                                                          
T     bus-18   100 bus-4    100             .555              100. 97.                                                                                                                                                                                                                                     
T     bus-18   100 bus-4    100A            .43               100. 97.8                                                                                                                                                                                                                                    
T     bus-20   100 bus-21   100             .7767             100. 10430                                                                                                                                                                                                                                   
T     bus-25   100 bus-24   100             118200            100. 100.                                                                                                                                                                                                                                    
T     bus-25   100 bus-24   100A            123000            100. 100.                                                                                                                                                                                                                                    
T     bus-26   100 bus-24   100             .0473             100. 10430                                                                                                                                                                                                                                   
T     bus-29   100 bus-7    100             .0648             100. 96.7                                                                                                                                                                                                                                    
T     bus-32   100 bus-34   100             .953              100. 97.5                                                                                                                                                                                                                                    
T     bus-41   100 bus-11   100             .749              100. 95.5                                                                                                                                                                                                                                    
T     bus-45   100 bus-15   100             .1042             100. 95.5                                                                                                                                                                                                                                    
T     bus-46   100 bus-14   100             .0735             100. 90.                                                                                                                                                                                                                                     
T     bus-51   100 bus-10   100             .0712             100. 93.                                                                                                                                                                                                                                     
T     bus-49   100 bus-13   100             .191              100. 89.5                                                                                                                                                                                                                                    
T     bus-43   100 bus-11   100             .153              100. 95.8                                                                                                                                                                                                                                    
T     bus-56   100 bus-40   100             119500            100. 95.8                                                                                                                                                                                                                                    
T     bus-57   100 bus-39   100             135500            100. 98.                                                                                                                                                                                                                                     
T     bus-55   100 bus-9    100             .1205             100. 94.                                                                                                                                                                                                                                     
.234567890*234567890*234567890*234567890*234567890*234567890*234567890*234567890
(END)